Circuit: * E:\nam 4\Nguon dien\ltspice ytb\video 2\Draft1.asc

Direct Newton iteration for .op point succeeded.

Date: Fri Sep 29 14:38:50 2023
Total elapsed time: 0.027 seconds.

tnom = 27
temp = 27
method = modified trap
totiter = 2094
traniter = 2082
tranpoints = 1042
accept = 1042
rejected = 0
matrix size = 4
fillins = 0
solver = Normal
Matrix Compiler1: 136 bytes object code size  0.1/0.0/[0.0]
Matrix Compiler2: off  [0.0]/0.0/0.1

