Circuit: * E:\nam 4\Nguon dien\bai tap lon\Draft1.asc

Direct Newton iteration for .op point succeeded.


Measurement "pin" FAIL'ed

Measurement "pout" FAIL'ed

Measurement "hieusuat" FAIL'ed


Date: Fri Nov 03 15:30:48 2023
Total elapsed time: 8.834 seconds.

tnom = 27
temp = 27
method = modified trap
totiter = 3431100
traniter = 3431080
tranpoints = 1153893
accept = 805989
rejected = 347904
matrix size = 32
fillins = 7
solver = Normal
Matrix Compiler1: 1.68 KB object code size  0.3/0.1/[0.1]
Matrix Compiler2: off  [0.1]/0.2/0.2

