LTspice 24.0.9 for Windows
Circuit: * C:\hoc\nam 4 ver 1\Nguon dien\bai tap lon\mach boost ne555.asc
Start Time: Mon Nov 11 22:58:01 2024
solver = Normal
Maximum thread count: 12
tnom = 27
temp = 27
method = modified trap
Direct Newton iteration for .op point succeeded.
