Circuit: * E:\nam 4\Nguon dien\bai tap lon\mach that back up.asc

Direct Newton iteration for .op point succeeded.

Date: Fri Nov 24 11:55:31 2023
Total elapsed time: 9.770 seconds.

tnom = 27
temp = 27
method = modified trap
totiter = 3524379
traniter = 3524359
tranpoints = 1193997
accept = 832336
rejected = 361661
matrix size = 32
fillins = 7
solver = Normal
Matrix Compiler1: 1.68 KB object code size  0.3/0.1/[0.1]
Matrix Compiler2: off  [0.1]/0.2/0.2

