LTspice 24.0.9 for Windows
Circuit: * C:\hoc\nam 4 ver 1\Nguon dien\bai tap lon\mach that.asc
Start Time: Mon Nov 11 22:48:02 2024
solver = Normal
Maximum thread count: 12
tnom = 27
temp = 27
method = modified trap
Direct Newton iteration failed to find .op point.  (Use ".option noopiter" to skip.)
Starting Gmin stepping
Gmin = 10
Gmin = 1.07374
Gmin = 0.115292
Gmin = 0.0123794
Gmin = 0.00132923
Gmin = 0.000142725
Gmin = 1.5325e-05
Gmin = 1.6455e-06
Gmin = 1.76685e-07
Gmin = 1.89714e-08
Gmin = 2.03704e-09
Gmin = 2.18725e-10
Gmin = 2.34854e-11
Gmin = 2.52173e-12
Gmin = 2.70769e-13
Gmin = 0
Gmin stepping succeeded in finding the operating point.

Changing Tseed to 9.76562e-10

pin: AVG(v(in)*-i(v1))=3.5866 FROM 0 TO 0.000250124
pout: AVG(v(out)*i(rload))=4.35735e-08 FROM 0 TO 0.000250124
hieusuat: AVG((pout/pin)*100)=1.2149e-06 FROM 0 TO 0.000250124

Total elapsed time: 0.149 seconds.

