Circuit: * E:\nam 4\Nguon dien\Btvn\lt spice\Bai 2.asc

WARNING: Node N004 is floating.

Direct Newton iteration for .op point succeeded.

Date: Sun Oct 22 21:02:40 2023
Total elapsed time: 0.364 seconds.

tnom = 27
temp = 27
method = modified trap
totiter = 121426
traniter = 121415
tranpoints = 36537
accept = 21959
rejected = 14578
matrix size = 14
fillins = 6
solver = Normal
Matrix Compiler1: 1.99 KB object code size  0.2/0.1/[0.1]
Matrix Compiler2: off  [0.1]/0.1/0.1

