Circuit: * E:\nam 4\Nguon dien\Btvn\lt spice\Bai 3.asc

.OP point found by inspection.
Heightened Def Con from 0.0006 to 0.000600001

pin: AVG(v(in)*-i(v1))=16.5094 FROM 0 TO 0.01
pout: AVG(v(out)*i(r1))=11.0405 FROM 0 TO 0.01
hieusuat: AVG((pout/pin)*100)=66.8741 FROM 0 TO 0.01


Date: Mon Oct 23 10:16:28 2023
Total elapsed time: 0.975 seconds.

tnom = 27
temp = 27
method = modified trap
totiter = 681298
traniter = 681298
tranpoints = 205533
accept = 152341
rejected = 53193
matrix size = 11
fillins = 3
solver = Normal
Matrix Compiler1: 718 bytes object code size  0.1/0.1/[0.1]
Matrix Compiler2: off  [0.0]/0.1/0.1

