Circuit: * E:\nam 4\Nguon dien\Btvn\lt spice\Bai 1.asc

Direct Newton iteration for .op point succeeded.

pout: AVG(v(out)*i(r2))=0.625906 FROM 0 TO 0.005
pin: AVG(v(in)*-i(v1))=1.73676 FROM 0 TO 0.005
eff: AVG((v(out)*i(r2))/(v(in)*-i(v1)))=0.360386 FROM 0 TO 0.005


Date: Wed Oct 18 13:00:29 2023
Total elapsed time: 0.204 seconds.

tnom = 27
temp = 27
method = modified trap
totiter = 2118
traniter = 2082
tranpoints = 1042
accept = 1042
rejected = 0
matrix size = 8
fillins = 0
solver = Normal
Matrix Compiler1:      27 opcodes  0.1/[0.0]/0.1
Matrix Compiler2: off  [0.0]/0.1/0.1

