Circuit: * E:\nam 4\Nguon dien\Home work\file lt spice\Home work 1.asc

Direct Newton iteration for .op point succeeded.

Date: Mon Sep 11 09:49:35 2023
Total elapsed time: 0.143 seconds.

tnom = 27
temp = 27
method = modified trap
totiter = 597
traniter = 578
tranpoints = 290
accept = 290
rejected = 0
matrix size = 4
fillins = 1
solver = Normal
Avg thread counts: 7.4/10.5/10.5/7.4
Matrix Compiler1: 244 bytes object code size  0.4/0.4/[0.3]
Matrix Compiler2: off  [0.2]/0.3/0.5

