Circuit: * E:\nam 4\Nguon dien\ltspice ytb\video 1\Draft1.asc


Date: Thu Sep 28 21:20:15 2023
Total elapsed time: 0.007 seconds.

tnom = 27
temp = 27
method = trap
totiter = 0
traniter = 0
tranpoints = 0
accept = 0
rejected = 0
matrix size = 3
fillins = 0
solver = Normal

