Circuit: * E:\nam 4\Nguon dien\ltspice ytb\video 1\Draft2.asc

.OP point found by inspection.

Date: Thu Sep 28 21:11:18 2023
Total elapsed time: 0.023 seconds.

tnom = 27
temp = 27
method = modified trap
totiter = 2114
traniter = 2114
tranpoints = 1058
accept = 1057
rejected = 1
matrix size = 3
fillins = 0
solver = Normal
Matrix Compiler1:       3 opcodes  0.0/[0.0]/0.0
Matrix Compiler2: 175 bytes object code size  0.0/0.0/[0.0]

